xflr5 v6.62

 Calculated polar for: NACA 0010

 1 1 Reynolds number fixed          Mach number fixed         

 xtrf =   1.000 (top)        1.000 (bottom)
 Mach =   0.000     Re =    40.000 e 6     Ncrit =   9.000

  alpha     CL        CD       CDp       Cm    Top Xtr Bot Xtr   Cpmin    Chinge    XCp    
 ------- -------- --------- --------- -------- ------- ------- -------- --------- ---------
 -25.000  -1.9096   0.08729   0.08504  -0.0102  1.0000  0.0029  -29.1904   0.0000   0.0000   0.0000   0.2015
 -24.000  -2.0519   0.05492   0.05225  -0.0264  1.0000  0.0029  -30.5712   0.0000   0.0000   0.0000   0.1973
 -23.000  -2.0997   0.03800   0.03505  -0.0322  1.0000  0.0029  -30.2507   0.0000   0.0000   0.0000   0.1980
 -22.000  -2.1029   0.02844   0.02530  -0.0318  1.0000  0.0029  -29.1865   0.0000   0.0000   0.0000   0.2010
 -21.000  -2.0840   0.02275   0.01946  -0.0272  1.0000  0.0029  -27.7848   0.0000   0.0000   0.0000   0.2056
 -20.000  -2.0520   0.01935   0.01595  -0.0196  1.0000  0.0029  -26.2127   0.0000   0.0000   0.0000   0.2115
 -19.000  -2.0021   0.01721   0.01373  -0.0117  1.0000  0.0030  -24.4488   0.0000   0.0000   0.0000   0.2175
 -18.000  -1.9249   0.01546   0.01194  -0.0078  1.0000  0.0030  -22.4350   0.0000   0.0000   0.0000   0.2215
 -17.000  -1.8388   0.01396   0.01040  -0.0050  1.0000  0.0030  -20.4016   0.0000   0.0000   0.0000   0.2251
 -16.000  -1.7466   0.01263   0.00905  -0.0029  1.0000  0.0030  -18.3930   0.0000   0.0000   0.0000   0.2282
 -15.000  -1.6500   0.01145   0.00786  -0.0013  1.0000  0.0030  -16.4349   0.0000   0.0000   0.0000   0.2311
 -14.000  -1.5500   0.01040   0.00682  -0.0001  1.0000  0.0030  -14.5451   0.0000   0.0000   0.0000   0.2337
 -13.000  -1.4474   0.00945   0.00588   0.0008  1.0000  0.0031  -12.7361   0.0000   0.0000   0.0000   0.2361
 -12.000  -1.3392   0.00860   0.00504   0.0008  0.9864  0.0034  -10.9921   0.0000   0.0000   0.0000   0.2378
 -11.000  -1.2359   0.00791   0.00428   0.0020  0.9328  0.0046  -9.3986   0.0000   0.0000   0.0000   0.2404
 -10.000  -1.1295   0.00719   0.00346   0.0027  0.8618  0.0065  -7.8974   0.0000   0.0000   0.0000   0.2425
  -9.000  -1.0197   0.00674   0.00291   0.0028  0.7890  0.0067  -6.4843   0.0000   0.0000   0.0000   0.2442
  -7.000  -0.7968   0.00605   0.00201   0.0026  0.6408  0.0093  -4.1665   0.0000   0.0000   0.0000   0.2469
  -5.000  -0.5710   0.00548   0.00130   0.0021  0.5044  0.0170  -2.4121   0.0000   0.0000   0.0000   0.2489
  -4.000  -0.4574   0.00527   0.00103   0.0017  0.4361  0.0266  -1.7250   0.0000   0.0000   0.0000   0.2497
  -3.000  -0.3430   0.00514   0.00084   0.0013  0.3676  0.0390  -1.1761   0.0000   0.0000   0.0000   0.2501
  -2.000  -0.2289   0.00497   0.00067   0.0009  0.3064  0.0725  -0.7799   0.0000   0.0000   0.0000   0.2506
  -1.000  -0.1144   0.00488   0.00057   0.0004  0.2403  0.1180  -0.5067   0.0000   0.0000   0.0000   0.2508
   0.000   0.0000   0.00484   0.00055   0.0000  0.1758  0.1758  -0.3432   0.0000   0.0000   0.0000   0.1195
   2.000   0.2289   0.00497   0.00067  -0.0009  0.0725  0.3064  -0.7799   0.0000   0.0000   0.0000   0.2506
   3.000   0.3430   0.00514   0.00084  -0.0013  0.0390  0.3676  -1.1761   0.0000   0.0000   0.0000   0.2501
   4.000   0.4574   0.00527   0.00103  -0.0017  0.0266  0.4361  -1.7250   0.0000   0.0000   0.0000   0.2497
   5.000   0.5710   0.00548   0.00130  -0.0021  0.0170  0.5044  -2.4122   0.0000   0.0000   0.0000   0.2489
   7.000   0.7969   0.00605   0.00201  -0.0026  0.0093  0.6408  -4.1667   0.0000   0.0000   0.0000   0.2469
   9.000   1.0198   0.00674   0.00291  -0.0028  0.0067  0.7890  -6.4847   0.0000   0.0000   0.0000   0.2442
  10.000   1.1295   0.00719   0.00346  -0.0027  0.0065  0.8618  -7.8980   0.0000   0.0000   0.0000   0.2425
  11.000   1.2360   0.00791   0.00428  -0.0021  0.0046  0.9328  -9.3994   0.0000   0.0000   0.0000   0.2404
  12.000   1.3393   0.00860   0.00504  -0.0008  0.0034  0.9864  -10.9932   0.0000   0.0000   0.0000   0.2378
  13.000   1.4475   0.00945   0.00588  -0.0009  0.0031  1.0000  -12.7373   0.0000   0.0000   0.0000   0.2361
  14.000   1.5502   0.01040   0.00682   0.0000  0.0030  1.0000  -14.5468   0.0000   0.0000   0.0000   0.2337
  15.000   1.6503   0.01145   0.00786   0.0012  0.0030  1.0000  -16.4372   0.0000   0.0000   0.0000   0.2311
  16.000   1.7469   0.01263   0.00905   0.0028  0.0030  1.0000  -18.3961   0.0000   0.0000   0.0000   0.2283
  17.000   1.8392   0.01396   0.01040   0.0049  0.0030  1.0000  -20.4058   0.0000   0.0000   0.0000   0.2251
  18.000   1.9255   0.01546   0.01194   0.0077  0.0030  1.0000  -22.4409   0.0000   0.0000   0.0000   0.2216
  19.000   2.0029   0.01721   0.01373   0.0116  0.0030  1.0000  -24.4580   0.0000   0.0000   0.0000   0.2176
  20.000   2.0538   0.01934   0.01594   0.0193  0.0029  1.0000  -26.2332   0.0000   0.0000   0.0000   0.2117
  21.000   2.0865   0.02271   0.01942   0.0268  0.0029  1.0000  -27.8152   0.0000   0.0000   0.0000   0.2058
  22.000   2.1065   0.02832   0.02518   0.0313  0.0029  1.0000  -29.2326   0.0000   0.0000   0.0000   0.2012
  23.000   2.1046   0.03778   0.03483   0.0316  0.0029  1.0000  -30.3157   0.0000   0.0000   0.0000   0.1982
  24.000   2.0587   0.05452   0.05184   0.0258  0.0029  1.0000  -30.6654   0.0000   0.0000   0.0000   0.1976
  25.000   1.9086   0.08816   0.08593   0.0088  0.0029  1.0000  -29.1488   0.0000   0.0000   0.0000   0.2022


